18
 generated by VMD
 C         1.209853        2.810848        1.903783
 C         0.020050        3.018752        1.928371
 C        -1.330374        3.032012        1.670596
 C        -2.373344        2.571353        1.269700
 C        -3.165637        1.749391        0.486466
 C        -3.468221        0.807504       -0.204117
 C        -3.517206       -0.258050       -0.995947
 C        -3.214301       -1.286236       -1.551932
 C        -2.350618       -2.302037       -1.941699
 C        -1.326539       -2.926687       -1.984127
 C        -0.020811       -3.282147       -1.800260
 C         1.146940       -3.165189       -1.438417
 C         2.324054       -2.630794       -1.010344
 C         3.211658       -1.909547       -0.549577
 C         3.698725       -0.822577        0.082599
 C         3.692916        0.255508        0.646124
 C         3.209631        1.361147        1.244209
 C         2.400156        2.177810        1.592325
