22
dopamine
  O    -2.353946    1.907988    0.055067   -0.365984
  O    -3.465531   -0.477301    0.381788   -0.363785
  N     4.346653    0.153190    0.308757   -0.706697
  C     2.112990   -0.100736   -0.685637   -0.170740
  C     0.631348   -0.228412   -0.435687   -0.025870
  C     2.918367    0.096266    0.603936   -0.043481
  C    -0.177968    0.910683   -0.325568   -0.180355
  C     0.031796   -1.475044   -0.263860   -0.140002
  C    -1.539607    0.823147   -0.052980    0.063109
  C    -1.332918   -1.577118    0.010259   -0.173229
  C    -2.130214   -0.442462    0.119920    0.053142
  H     2.306499    0.746204   -1.358380    0.089836
  H     2.495565   -0.993524   -1.191597    0.099507
  H     2.523845    0.980290    1.137073    0.070299
  H     2.740160   -0.762671    1.261899    0.088885
  H     0.264335    1.897522   -0.462292    0.125824
  H     0.629215   -2.378884   -0.347481    0.125935
  H    -1.789309   -2.557469    0.136947    0.136466
  H     4.878006    0.206790    1.172584    0.303252
  H     4.557588    1.004068   -0.206152    0.301801
  H    -1.825873    2.700591   -0.092805    0.357511
  H    -3.733546   -1.398684    0.471779    0.354515
